<?xml version='1.0' encoding='UTF-8'?>
<routes>
 <route id="0" town="Town05">
    <waypoint x="-162.793869" y="84.380424" z="0.000000" pitch="0.0" roll="0.0" yaw="-179.934433"/>
    <waypoint x="-184.550919" y="73.194290" z="0.055450" pitch="0.0" roll="0.0" yaw="-90.015793"/>
    </route>
</routes>
